/*--------------------------------*- C++ -*----------------------------------*\
| =========                 |                                                 |
| \\      /  F ield         | OpenFOAM: The Open Source CFD Toolbox           |
|  \\    /   O peration     | Version:  2.4.0                                 |
|   \\  /    A nd           | Web:      www.OpenFOAM.org                      |
|    \\/     M anipulation  |                                                 |
\*---------------------------------------------------------------------------*/
FoamFile
{
    version     2.0;
    format      ascii;
    class       dictionary;
    location    "system";
    object      fvSchemes;
}
// * * * * * * * * * * * * * * * * * * * * * * * * * * * * * * * * * * * * * //

ddtSchemes
{
    default         $node.ddtSchemes;
}

gradSchemes
{
    default         $node.gradSchemes;
}

divSchemes
{
    default         none;

    div(phi,U)      bounded Gauss upwind;
    div((muEff*dev2(T(grad(U))))) Gauss linear;
    div(phi,e)      bounded Gauss upwind;
    div(phi,epsilon) bounded Gauss upwind;
    div(phi,k)      bounded Gauss upwind;
    div(phi,Ekp)    bounded Gauss upwind;
}

laplacianSchemes
{
    default         $node.laplacianSchemes;
}

interpolationSchemes
{
    default         $node.interpolationSchemes;
}

snGradSchemes
{
    default         $node.snGradSchemes;
}

fluxRequired
{
    default         $node.fluxRequired;
    p               ;
}


// ************************************************************************* //
