/*--------------------------------*- C++ -*----------------------------------*\
| =========                 |                                                 |
| \\      /  F ield         | OpenFOAM: The Open Source CFD Toolbox           |
|  \\    /   O peration     | Version:  2.4.0                                 |
|   \\  /    A nd           | Web:      www.OpenFOAM.org                      |
|    \\/     M anipulation  |                                                 |
\*---------------------------------------------------------------------------*/
FoamFile
{
    version     2.0;
    format      ascii;
    class       dictionary;
    object      blockMeshDict;
}
// * * * * * * * * * * * * * * * * * * * * * * * * * * * * * * * * * * * * * //

convertToMeters 0.0254;  //meters per inch

a 300;        // Number of elements in x direction
b 100;        // Number of elements in y direction
c 100;        // Number of elements in z direction
xi  -0.5;        // Minimum x coordinate   
xf 15;       // Maximum x coordinate
yi  -0.5;        // Minimum y coordinate
yf 4.5;      // Maximum y coordinate
zi  -0.5;        // Minimum z coordinate
zf 4.5;      // Maximum z coordinate


vertices
(
    ($xi $yi $zi) //0
    ($xf $yi $zi) //1
    ($xf $yf $zi) //2
    ($xi $yf $zi) //3
    ($xi $yi $zf) //4
    ($xf $yi $zf) //5
    ($xf $yf $zf) //6
    ($xi $yf $zf) //7
);


blocks
(
    hex (0 1 2 3 4 5 6 7) ($a $b $c) simpleGrading (1 1 1)
);

edges
(
);

patches
(
);

mergePatchPairs
(
);

// ************************************************************************* //
